LTspice 24.0.12 for Windows
Circuit: * C:\Users\Lucas\Documents\Proyectos\ControlLamparasSonido\Simulacion\SimulacionSPICE.asc
Start Time: Mon Apr 21 17:38:43 2025
Warning: Multiple definitions of model "bc557c" Type: BJT
Warning: Multiple definitions of model "bc557b" Type: BJT
Warning: Multiple definitions of model "bc547c" Type: BJT
Warning: Multiple definitions of model "bc547b" Type: BJT
Error on line 1311 : .model bc547 npn bf=400 ne=1.3 ise=10.3f ikf=50m is=10f vaf=80 ikr=12m  br=9.5 nc=2 var=10 rb=280 re=1 rc=40 vje=.48 tr=.3u tf=.5n cje=12p vje=.48 mje=.5 cjc=6p vjc=.7 mjc:.33 isc=47p kf=2f
	* Unrecognized parameter "mjc:.33" -- ignored
solver = Normal
Maximum thread count: 12



Direct Newton iteration for .op point succeeded.
.step c=5e-12



.step c=1e-11



.step c=1.5e-11



.step c=2e-11



.step c=2.5e-11



.step c=3e-11



.step c=3.5e-11



.step c=4e-11



.step c=4.5e-11



.step c=5e-11



.step c=5.5e-11



.step c=6e-11



.step c=6.5e-11



.step c=7e-11



.step c=7.5e-11



.step c=8e-11



.step c=8.5e-11



.step c=9e-11



.step c=9.5e-11
tnom = 27
temp = 27
method = modified trap
.step c=1e-10
Total elapsed time: 5.833 seconds.

